21/12/2017 12:30:51
Citta 
Pesaro
Recupero dati della Città
Dati recuperati correttamente
Download pagina
Creazione Feed
Inserimento dati AlboPOP
GUIDI IMPIANTI SRL - VIA MARCO POLO - PROVVEDIMENTI VARI DI MODIFICA ALLA VIABILITA' ORDINARIA - DISCIPLINA DELLA CIRCOLAZIONE E DELLA SOSTA DEI VEICOLI. 
Dati AlboPOP Item
LAVORI DI STRAORDINARIA MANUTENZIONE PALESTRA NORD ADRIATIC ARENA. RETTIFICA REGIME IVA. 
Dati AlboPOP Item
RIMBORSO DA PARTE DEL COMUNE DI VALLEFOGLIA DELLA RETRIBUZIONE DI RISULTATO RELATIVA ALL’ANNO 2016 DELLA DOTT.SSA GIRALDI DEBORAH, TITOLARE DELLA SEGRETERIA CONVENZIONATA. ACCERTAMENTO D'ENTRATA ESERCIZIO 2017. 
Dati AlboPOP Item
RIMBORSO SPESE PER LAVORO STRAORDINARIO DA PARTE DEL COMUNE DI MOMBAROCCIO. ACCERTAMENTO D'ENTRATA ESERCIZIO 2017. 
Dati AlboPOP Item
LAVORI DI RISTRUTTURAZIONE PER RISANAMENTO STRUTTURALE E ADEGUAMENTO ALLE NORME DELL'AUDITORIUM DELLA SCUOLA MEDIA DANTE ALIGHIERI SITA A PESARO IN VIA GATTONI. 1° CORPO DI LAVORI: OPERE STRUTTURALI. APPROVAZIONE CERTIFICATO DI REGOLARE ESECUZIONE E CONTO FINALE DEI LAVORI 
Dati AlboPOP Item
LIQUIDAZIONE COMPENSI RELATIVI ALL'INDAGINE MULTISCOPO ISTAT "ASPETTI DELLA VITA QUOTIDIANA" - ANNO 2017 
Dati AlboPOP Item
ASPES SPA GESTIONE DEL SERVIZIO DI ACCERTAMENTO DELL'IMPOSTA COMUNALE SUGLI IMMOBILI - VERIFICA DELLO STATO DI ATTUAZIONE DEI PROGRAMMI 2017 
Dati AlboPOP Item
INFOCAMERE - SOCIETA' CONSORTILE DI INFORMATICA DELLE CAMERE DI COMMERCIO ITALIANE PER AZIONI: FRUIZIONE DEL SERVIZIO DI ACCESSO ALLA BANCA DATI DI TELEMACO 
Dati AlboPOP Item
REVOCA DELLE MISURE DI ACCOGLIENZA A CARICO DEL BENEFICIARIO M.I. DAL PROGETTO "TANDEM" RIENTRANTE NEL PROGRAMMA TERRITORIALE SPRAR 2016/2017 
Dati AlboPOP Item
ADOZIONE MODELLI UNICI SUAP ED ATTIVAZIONE PORTALE WEB PER LA PRESENTAZIONE ON-LINE DELLE PRATICHE SUAP RELATIVE ALL’EDILIZIA PRODUTTIVA. 
Dati AlboPOP Item
FAR COSTRUZIONI EDILI SRL - VIA MILITE IGNOTO - PROVVEDIMENTI VARI DI MODIFICA ALLA VIABILITA' ORDINARIA - DISCIPLINA DELLA CIRCOLAZIONE E DELLA SOSTA DEI VEICOLI. 
Dati AlboPOP Item
VIA MASTRO GIORGIO CIV. 7 - REALIZZAZIONE STALLO DI SOSTA PER VEICOLI AL SERVIZIO DI PERSONE DIVERSAMENTE ABILI TITOLARI DI AUTORIZZAZIONE DI CUI ALL'ART 188/2° DEL C.D.S. - TIPO GENERICO - DISCIPLINA DELLA CIRCOLAZIONE E DELLA SOSTA DEI VEICOLI. 
Dati AlboPOP Item
VIA MASTRO GIORGIO CIV. 50 - TRASFORMAZIONE STALLO DI SOSTA RISERVATO AI VEICOLI AL SERVIZIO DI PERSONE DIVERSAMENTE ABILI TITOLARI DI AUTORIZZAZIONE DI CUI ALL'ART. 188/2° DEL C.D.S. - DA GENERICO A PERSONALIZZATO - DISCIPLINA DELLA CIRCOLAZIONE E DELLA SOSTA DEI VEICOLI. 
Dati AlboPOP Item
VIA DELL'ANNUNZIATA - REALIZZAZIONE STALLO DI SOSTA PER VEICOLI AL SERVIZIO DI PERSONE DIVERSAMENTE ABILI TITOLARI DI AUTORIZZAZIONE DI CUI ALL'ART . 188/2° DEL C.D.S. - TIPO PERSONALIZZATO - DISCIPLINA DELLA CIRCOLAZIONE E DELLA SOSTA DEI VEICOLI- 
Dati AlboPOP Item
PROCEDURA DI CONCORDATO PREVENTIVO SOCIETA' INDUSTRIE PICA SPA IN LIQUIDAZIONE CON SEDE IN PESARO - DICHIARAZIONE ATTESTANTE INADEMPIMENTO TRIBUTARIO 
Dati AlboPOP Item
ISTRUTTORIA PER LA PROCEDURA DI MOBILITÀ ESTERNA EX ART.30 D.LGS.165/01 – ESPERTO AMMINISTRATIVO CATEGORIA CG1. 
Dati AlboPOP Item
VARIAZIONE AL BILANCIO DI PREVISIONE FINANZIARIO 2017/2019. 
Dati AlboPOP Item
ADOZIONE DI VARIANTE ALL'ART. 69 DELLE N.T.A. DEL PIANO DEL PARCO DEL MONTE SAN BARTOLO, AL FINE DI CONSENTIRE L'UTILIZZO DEL LEGNO COME MATERIALE DI COSTRUZIONE PER GLI EDIFICI RURALI - ARTT. 15 E 30 DELLA L.R. N. 34/92. 
Dati AlboPOP Item
ADOZIONE DI VARIANTE AL P.R.G. VIGENTE RELATIVAMENTE ALLA UMI 4.3.3 – EX HOTEL PALACE, SITO IN LOC. PESARO – VIA NAZARIO SAURO 5 – VNS 558, AI SENSI DEL COMBINATO DISPOSTO DEGLI ARTT. 15 E 30 DELLA L.R. MARCHE N.34/92 E S.M.I. 
Dati AlboPOP Item
ADOZIONE DI VARIANTE SOSTANZIALE AL P.R.G. VIGENTE AI FINI DELLA RIDUZIONE DEL CONSUMO DI SUOLO E DEL CARICO URBANISTICO, RELATIVAMENTE AD ALCUNE AREE SITUATE NEL TERRITORIO COMUNALE, AI SENSI DELL’ART. 26 DELLA LEGGE REGIONALE N.34/92 E S.M.I. 
Dati AlboPOP Item
AVVISO RELATIVO OBBLIGO D’ ISTRUZIONE ANNO SCOLASTICO 2018/2019 
Dati AlboPOP Item
AVVISO DI DEPOSITO - ART. 26 DPR 602/73, ART. 60 DPR 600/73, ART. 140 CPC - IRREPERIBILI - ELENCO N.1 DEL 19/12/2017 
Dati AlboPOP Item
PROGETTO TERRE E MOTORI - ACCERTAMENTO CONTRIBUTO REGIONALE DI CUI AL DECRETO DGR N. 946 DEL 07.08.2017 
Dati AlboPOP Item
RISCOSSIONE COATTIVA IMU TRAMITE INGIUNZIONI DI PAGAMENTO - ERRATA CORRIGE LISTA DI CARICO 2017000001 - APPROVAZIONE LISTA DI CARICO 2017000003 
Dati AlboPOP Item
LAVORI D’IMPLEMENTAZIONE DEL TRATTO VIARIO COSTITUITO DALL’ATTRAVERSAMENTO CARRABILE DEL RIO DELLA SELVA GROSSA, POSTO IN PROSSIMITÀ DELL’INTERSEZIONE TRA LA VIA DELLA SELVA GROSSA E VIA DEL PANTANO MEDIANTE “ADEGUAMENTO DEL PONTE SITO IN LOC. CASE BRUCIATE”. ASSUNZIONE IMPEGNO DI SPESA DI EURO 60.000,00. 
Dati AlboPOP Item
RSS Creato
Pubblicazione GitHUB
