02/02/2018 10:31:28
Citta 
Canosa di Puglia
Recupero dati della Città
Dati recuperati correttamente
Download pagina
Creazione Feed
Inserimento dati AlboPOP
FORINA ANTONIETTA NATA A CANOSA DI PUGLIA IL 04.06.1954 
Dati AlboPOP Item
Data al:  04/03/2018 
Conversion from string "Sun, 04 Mar 2018 00:00:00 GMT" to type 'Date' is not valid.
INTEGRAZIONE ORDINANZA DIRIGENZIALE N. 169 - PROT. 45534/2017 PER LA REGOLAMENTAZIONE DELLA VIABILITÀ ALLA ROTATORIA REALIZZATA SULLA INTERSEZIONE VIARIA TRA VIA FALCONE E VIA CAPURSO. 
Dati AlboPOP Item
Elezioni della Camera dei Deputati e del Senato della Repubblica. Delimitazione spazi da destinare alla propaganda elettorale. 
Dati AlboPOP Item
ELENCO DEI CITTADINI NATI NELL'ANNO 2001 ISCRITTI NELLA LISTA DI LEVA MILITARE 
Dati AlboPOP Item
VANGI - BRUNO 
Dati AlboPOP Item
Assunzione impegno di spesa per adesione all'Associazione Nazionale Ufficiali di Stato Civile e Anagrafe, anno 2018 
Dati AlboPOP Item
SERVIZIO LAVAGGIO SCUOLABUS-AFFIDAMENTO IN PROROGA TECNICA,ASSUNZIONE SOMMA 
Dati AlboPOP Item
ADESIONE AL SERVIZIO <TELEMACO> OFFERTO DA INFOCAMERE PER LA DURATA DI ANNI UNO. ASSUNZIONE SPESA GIG: Z3721DDCD6. 
Dati AlboPOP Item
Cod. MC - PO FESR 2007-2013 Azione 2.4.1. “Promozione del risparmio energetico e dell’impiego di energia solare nell’edilizia pubblica non residenziale” Intervento relativo all’edificio “Palazzo di Città”. Ricognizione termini per l'esecuzione dei lavori 
Dati AlboPOP Item
Nomina Commissione Giudicatrice della gara di concessione, a favore di soggetti privati che non perguano finalità di lucro, dei beni siti in agro di Canosa di Puglia- Tratturo Regio, tratto compreso tra Ponte Romano e Mausoleo Bagnoli. 
Dati AlboPOP Item
Affrancazione livello enfiteutico Eredi Palmieri. Fondo rustico in agro di Canosa di Puglia, foglio 18, particella 341. 
Dati AlboPOP Item
Assunzione spesa per partecipazione corso dipendenti comunali. 
Dati AlboPOP Item
LIQUIDAZIONE FATTURE PER SERVIZIO DI TELEFONIA E CONNETTIVITA' DEGLI UFFICI COMUNALI, EMESSE DALLA TIM SPA. 
Dati AlboPOP Item
COLLOCAMENTO A RIPOSO, DAL 1°.09.2018, PER RAGGIUNTI LIMITI CONTRIBUTIVI, DEL DIPENDENTE COMUNALE SIG. SALERNO SABINO, OPERATORE SERVIZI GENERALI DI RUOLO, CATEGORIA ECONOMICA A5. 
Dati AlboPOP Item
Liquidazione somme in favore della sig.ra Santoro Daniela a seguito dello schema di atto transattivo approvato con Deliberazione di Giunta Comunale n. 3 del 05/01/2018. 
Dati AlboPOP Item
SERVIZIO DI IGIENE URBANA NEL COMUNE DI CANOSA DI PUGLIA. PAGAMENTO CANONE MESI OTTOBRE E NOVEMBRE 2017 ALL'UNIONE DI COMUNI ARO 2 BARLETTA ANDRIA TRANI. CIG: 2668772452 
Dati AlboPOP Item
SERVIZIO DI IGIENE URBANA NEL COMUNE DI CANOSA DI PUGLIA PERIODO GENNAIO-GIUGNO 2018. IMPEGNO DELLA SPESA 
Dati AlboPOP Item
ASSUNZIONE SPESA A FAVORE UNIONE ARO 2 BT PER SERVIZIO DI RECUPERO FORSU E SCARTI DEL VERDE PRESSO IMPIANTI AUTORIZZATI PER IL PERIODO 1° GENNAIO/30 GIUGNO 2018. 
Dati AlboPOP Item
ASSUNZIONE SPESA RINNOVO QUOTA ASSOCIATIVA ALL'ANUTEL ANNO 2018. 
Dati AlboPOP Item
Attribuzione Posizioni organizzative in carico al IV Settore LL.PP. Manutenzioni per l'anno 2018 
Dati AlboPOP Item
DETERMINA A CONTRARRE - AFFIDAMENTO FORNITURA DI CARBURANTE PER RISCALDAMENTO EDIFICIO POLIZIA LOCALE 
Dati AlboPOP Item
Rettifica Determinazione Dirigenziale I Settore n. 1253 del 14.11.2017 ad oggetto: “Acquisto materiale informatico per gli uffici comunali” 
Dati AlboPOP Item
ASSUNZIONE SOMMA SERVIZIO MENSA SCOLASTICA 
Dati AlboPOP Item
ASSUNZIONE SPESA E VERSAMENTO IRAP SU COMPETENZE LIQUIDATE AL PERSONALE COMUNALE PER IL MESE DI GENNAIO 2018 
Dati AlboPOP Item
LIQUIDAZIONE SALARIO ACCESSORIO MESE DI DICEMBRE 2017 - PERSONALE DIPENDENTE POLIZIA LOCALE 
Dati AlboPOP Item
RSS Creato
Pubblicazione GitHUB
