20/12/2017 10:30:37
Citta 
Desio
Recupero dati della Città
Dati recuperati correttamente
Download pagina
Creazione Feed
Inserimento dati AlboPOP
IMPIANTO TERMICO PERICOLOSO INSTALLATO PRESSO L’ABITAZIONE SITA IN VIA PARTIGIANI D’ITALIA, 24 – DESIO. PROPRIETARI: ELLI ANTONELLA – ELLI CARLO – ELLI DAVIDE GIUSEPPE – PERSI MARCELLA. ORDINE DI ADEGUAMENTO E DIVIETO DI UTILIZZO DELL’IMPIANTO. 
Dati AlboPOP Item
APPROVAZIONE AVVISO ESPLORATIVO PER MANIFESTAZIONE DI INTERESSE ALLA PARTECIPAZIONE COME PARTNER DEL COMUNE DI DESIO - ENTE CAPOFILA - AL PROGETTO PER L'OTTENIMENTO DEL FINANZIAMENTO DESTINATO AI PROGETTI PER LA GESTIONE SOCIALE DEI QUARTIERI DI EDILIZIA PUBBLICA IN LOMBARDIA (POR FSE 2014-2020 - ASSE II - AZIONE 9.1.3 E 9.4.2) 
Dati AlboPOP Item
PRESA D'ATTO DEL CONSUNTIVO 2016, DELLE SPESE PREVENTIVATE PER IL PERIODO 01/01/2017-28/02/2018 E PER L'INTERVENTO DI GESTIONE DELLE VALVOLE TERMOSTATICHE, RELATIVI AL "CONDOMINIO GARIBALDI" - VIA GARIBALDI 99-101 
Dati AlboPOP Item
INIZIATIVE VOLTE A FAVORIRE LA MOBILITÀ NEL SETTORE DELLA LOCAZIONE - DGR X/3789/2015 - 4^ LIQUIDAZIONE 
Dati AlboPOP Item
SVINCOLO POLIZZA FIDEJUSSORIA A GARANZIA DEGLI OBBLIGHI CONTRATTUALI DEL CONCESSIONARIO DEL SERVIZIO DI ACCERTAMENTO E RISCOSSIONE DELL'IMPOSTA COMUNALE SULLA PUBBLICITÀ, DEI DIRITTI SULLE PUBBLICHE AFFISSIONI E DELLA TASSA PER L'OCCUPAZIONE DI SPAZI ED AREE PUBBLICHE TRE ESSE ITALIA SRL, VIA CONDOTTO VECCHIO N. 50 – 03019 SUPINO (FR) - CIG 33453920D0 – PERIODO 01.01.2012-31.12.2016. 
Dati AlboPOP Item
ASSUNZIONE IMPEGNO DI SPESA PER RIVERSAMENTO ALLO STATO DEI DIRITTI DELLE CARTE D'IDENTITA' ELETTRONICHE - ANNO 2018 ( € 85.000,00) 
Dati AlboPOP Item
SVINCOLO POLIZZE ASSICURATIVE PRESTATE DA ATRADIUS CREDIT INSURANCE N.V. (ORA ATRADIUS CREDITO Y CAUCION S.A. DE SEGUROS Y REASEGUROS) A GARANZIA DEGLI OBBLIGHI ASSUNTI DALLA SOCIETÀ POLO TECNOLOGICO BRIANZA SPA CON LA STIPULA DELLA CONVENZIONE REP. N. 13397/5441 DELL'1 AGOSTO 2007, A ROGITO DOTT.SSA EZILDA MARICONDA, NOTAIO IN MONZA. 
Dati AlboPOP Item
RINNOVO ABBONAMENTO DI ACCESSO AL SERVIZIO BANCHE DATI INFOCERT E CAMERE DI COMMERCIO, “TELEMACO” VIA INTERNET, MODALITA’ BROWSER. IMPEGNO DI SPESA ANNO 2018, DAL 01/01/2018 AL 31/12/18. EURO 2.440,00, IVA COMPRESA. CIG: ZCD2149C41 
Dati AlboPOP Item
FORNITURA TRAMITE MERCATO MEPA DI SISTEMI SOFTWARE PER CONTRIBUIRE AD IMPLEMENTARE LE NUOVE MISURE MINIME DI SICUREZZA E ATTREZZATURE INFORMATICHE -DIVERSI FORNITORI 
Dati AlboPOP Item
REGISTRAZIONE TELEMATICA PRESSO L’AGENZIA DELLE ENTRATE DEI CONTRATTI DI APPALTO ROGATI DAL SEGRETARIO GENERALE – VERSAMENTO IMPOSTA DI REGISTRO E IMPOSTA DI BOLLO – INTEGRAZIONE DI ACCERTAMENTO ENTRATA E DI IMPEGNO DI SPESA ANNO 2017 
Dati AlboPOP Item
AFFIDAMENTO DEL SERVIZIO DI GESTIONE PARZIALE DELL’ITER DELLE SANZIONI AMMINISTRATIVE RELATIVE AGLI ATTI POSTALIZZATI. ULTERIORE IMPEGNO DI SPESA PER €. 7.000,00. CIG Z432143840. 
Dati AlboPOP Item
INTERVENTI DI MANUTENZIONE ORDINARIA E STRAORDINARIA IMPIANTI TERMICI ED ELETTRICI DI SCUOLE ED EDIFICI DEL COMUNE DI DESIO – DETERMINA A CONTRARRE ED AFFIDAMENTO LAVORI ALL'IMPRESA NELSA S.R.L. - ASSUNZIONE IMPEGNO DI SPESA € 38.000,00 (OLTRE IVA) - C.I.G. Z6F210D3B5 
Dati AlboPOP Item
CONCESSIONE DEL SERVIZIO ILLUMINAZIONE VOTIVA PRESSO I CIMITERI COMUNALI. AUTORIZZAZIONE DILAZIONE PAGAMENTI - 
Dati AlboPOP Item
SOSTITUZIONE DEI CONTROSOFFITTI DELL’AUDITORUM PRESSO LA SCUOLA SECONDARIA PERTINI (B/1587 – 1° LOTTO). APPROVAZIONE MODALITA’ APPALTO LAVORI E ASSUNZIONE IMPEGNO DI SPESA (€ 100.000,00). CUP G42B17002800004 – CIG: 7307549C31 
Dati AlboPOP Item
FORNITURA DI SEGNALETICA VERTICALE STRADALE PER INTERVENTI DI MANUTENZIONE IN AMMINISTRAZIONE DIRETTA – DETERMINA A CONTRARRE ED AFFIDAMENTO DELLA FORNITURA AL CENTRO COLORE COLOMBO SNC DI A. & L. COLOMBO – ASSUNZIONE IMPEGNO DI SPESA € 1.790,00 OLTRE IVA – CIG Z252125A94 
Dati AlboPOP Item
INTERVENTI DI MANUTENZIONE ORDINARIA EDIFICI RESIDENZIALI DEL PATRIMONIO COMUNALE IN LOCAZIONE – OPERE EDILI ANNO 2017 (G_04_2017) . APPROVAZIONE DEL PROGETTO, DETERMINA A CONTRARRE E AFFIDAMENTO DEI LAVORI ALLA SOCIETA’ “MANUTEC TEAM S.R.L.” CON SEDE LEGALE IN DESIO (MB) - VIA VERCELLI, 12 - C.F. E P.I. 10086830964 – ASSUNZIONE IMPEGNO DI SPESA € 35.900,00= OLTRE IVA 10%. CIG ZF5213C391 
Dati AlboPOP Item
D.G.R. X / 5969 DEL 12/12/2016: FAMILY HUB - POLITICHE DI CONCILIAZIONE DEI TEMPI LAVORATIVI CON LE ESIGENZE FAMILIARI – PROGETTO AMBITO DI DESIO – ACCERTAMENTO ED IMPEGNO ANNO 2017 
Dati AlboPOP Item
RIPARTO FONDO SOCIALE REGIONALE – D.G.R. N. X/6974 DEL 31 LUGLIO 2017 “DETERMINAZIONI IN MERITO ALLA RIPARTIZIONE DELLE RISORSE DEL FONDO SOCIALE REGIONALE 2017”- ACCERTAMENTO E IMPEGNO DI SPESA QUOTE SPETTANTI AGLI ENTI CHE HANNO PRESENTATO ISTANZA DI FINANZIAMENTO PARI AL 70% DELL'IMPORTO COMPLESSIVO   
Dati AlboPOP Item
NOMINA COMMISSIONE PER LA VALUTAZIONE DELLE DOMANDE RELATIVE AL BANDO DI ACCREDITAMENTO DELLE STRUTTURE DISPONIBILI ALL'ACCOGLIENZA DGR 6465/2017 - “INTERVENTI VOLTI AL CONTENIMENTO DELL'EMERGENZA ABITATIVA E AL MANTENIMENTO DELL'ALLOGGIO IN LOCAZIONE – ANNO 2017” 
Dati AlboPOP Item
D.G.R. N. X/1081 DEL 12.12.2013 CONCILIAZIONE FAMIGLIA/LAVORO – INTEGRAZIONE QUOTA A FAVORE DEL PARTNER PROGETTUALE “CONSORZIO DESIO-BRIANZA” PROGETTO “WELFARE A CONTATTO – WELFARE ARTIGIANO” (IMPEGNO EURO 4.150,00) 
Dati AlboPOP Item
RSS Creato
Pubblicazione GitHUB
