22/11/2017 18:30:45
Citta 
Orzinuovi
Recupero dati della Città
Dati recuperati correttamente
Download pagina
Creazione Feed
Inserimento dati AlboPOP
ORDINE DEL GIORNO DEL CONSIGLIO COMUNALE DEL 28 NOVEMBRE 2017 
Dati AlboPOP Item
BANDO DI CONCORSO PER N. 1 POSTO DI ISTRUTTORE TECNICO CATEGORIA GIURIDICA C1 
Dati AlboPOP Item
BANDO DI CONCORSO PER N. 1 POSTO DI ISTRUTTORE AMMINISTRATIVO CATEGORIA GIURIDICA C1 (SETTORE ANAGRAFE,STATO CIVILE, SERVIZIO ELETTORALE, LEVA MILITARE E STATISTICHE) 
Dati AlboPOP Item
AVVISO PUBBLICO ESPLORATIVO N. 02 DI MANIFESTAZIONE DI INTERESSE PER L’ESPLETAMENTO DELLA PROCEDURA NEGOZIATA DI AFFIDAMENTO DEL SERVIZIO DI ELABORAZIONI STIPENDIALI DEL PERSONALE DIPENDENTE E ASSIMILATO, ELABORAZIONI PREVIDENZIALI PER IL PERSONALE DIPENDENTE E RILEVAMENTO PRESENZE – PERIODO DA 01/01/2018 A 31/12/2021 ED EVENTUALE PROROGA TECNICA FINO AL 30/06/2022 
Dati AlboPOP Item
DEPOSITO ATTI NELLA CASA COMUNALE PER AFFISSIONE ALL'ALBO 
Dati AlboPOP Item
EROGAZIONE CONTRIBUTI ECONOMICI FINALIZZATI - IMPEGNO DI SPESA 
Dati AlboPOP Item
EROGAZIONE CONTRIBUTO ECONOMICO A FAVORE DEL GRUPPO SPORTIVO CROCE VERDE PER LE ATTIVITÀ SVOLTE SUL TERRITORIO NELL’ANNO 2017. 
Dati AlboPOP Item
IMPEGNO DI SPESA PER CONSULTAZIONI BANCHE DATI SERVIZIO TELEMACO PER L'ANNO 2017 
Dati AlboPOP Item
AVVISO DI DEPOSITO DI ATTO DA NOTIFICARE NELLA CASA COMUNALE - CRON NR 547 A CARICO DI AUTODEMOLIZIONE VEROLESE DI CANGELLI ANTONIO 
Dati AlboPOP Item
AUTORIZZAZIONE PER INSTALLAZIONE INSEGNA PUBBLICITARIA "ILLY" IN VIA MAZZINI N° 1/A 
Dati AlboPOP Item
RIMBORSO TASSA RIFIUTI (TARI) ANNO 2017 PER ERRATO VERSAMENTO AL COMUNE DI ORZINUOVI 
Dati AlboPOP Item
RIMBORSO PER UTENZA NON DOMESTICA TASSA RIFIUTI (TARI) ANNO 2017 
Dati AlboPOP Item
RIMBORSO IMU ANNO 2014 PER ERRATO VERSAMENTO AL COMUNE DI ORZINUOVI 
Dati AlboPOP Item
ELIMINAZIONE DEI VINCOLI CONVENZIONALI NELL’AMBITO DEL PIANO DI ZONA LEGGE 167/1962 
Dati AlboPOP Item
PROCEDURA APERTA PER L’ASSEGNAZIONE IN CONCESSIONE DI AREE PER IL POSIZIONAMENTO DI CASSONETTI PER LA RACCOLTA DI INDUMENTI ED ACCESSORI USATI (C.E.R. 20.01.10 - 20.01.11) - AGGIUDICAZIONE DEFINITIVA 
Dati AlboPOP Item
PULIZIA E RIPRISTINO ROTATORIA DI VIA ADUA INTERSEZIONE VIA LOMBARDIA CIG. Z0D20C5C8A 
Dati AlboPOP Item
IMPEGNO DI SPESA A FAVORE DEL CONSORZIO IRRIGUO VASO FOSSA E DEL CONSORZIO IRRIGUO ROGGIA CONTA DI BARCO PER RECAPITO ACQUE DEPURATE PROVENIENTI DAL DEPURATORE COMUNALE DI VIA LAME SMART CIG Z3D20BCF8B 
Dati AlboPOP Item
TRASMISSIONE BANDO DI CONCORSO PER N. 1 POSTO DI OPERAIO SPECIALIZZATO CAT. B3 
Dati AlboPOP Item
BANDO DI CONCORSO PER N. 1 POSTO DI OPERAIO SPECIALIZZATO CAT. B3 
Dati AlboPOP Item
EROGAZIONE CONTRIBUTI ECONOMICI FINALIZZATI - IMPEGNO DI SPESA 
Dati AlboPOP Item
PIANO ESECUTIVO DI GESTIONE DELLA FUNZIONE TRIBUTI ANNO 2017. INTEGRAZIONE IMPEGNO DI SPESA A FAVORE DELL’UNIONE DEI COMUNI LOMBARDA BASSA BRESCIANA OCCIDENTALE 
Dati AlboPOP Item
RETTIFICA DEL CAPITOLATO D’ONERI APPROVATO CON DETERMINAZIONE N. 520 DEL 9/11/2017, RELATIVA ALL’INDIZIONE DI UNA PROCEDURA NEGOZIATA, PREVIO AVVISO DI MANIFESTAZIONE DI INTERESSE, PER L’AFFIDAMENTO DEL SERVIZIO DI “ELABORAZIONI STIPENDIALI PER IL PERSONALE DIPENDENTE ED ASSIMILATO, ELABORAZIONI PREVIDENZIALI PER IL PERSONALE DIPENDENTE E RILEVAMENTO PRESENZE” - CIG 727045486F 
Dati AlboPOP Item
MANUTENZIONE ORDINARIA CIMITERO FRAZIONE BARCO. CIG. Z7C20C5C10 
Dati AlboPOP Item
SERVIZIO DI SGOMBERO NEVE E SERVIZIO ANTIGELO CON MEZZI MECCANICI – CENTRO STORICO - STAGIONE INVERNALE 2017/2018 – CPV 90620000-9 - CIG: Z62205656D 
Dati AlboPOP Item
AVVISO DI SELEZIONE PER LE PROGRESSIONI ECONOMICHE ORIZZONTALI CON DECORRENZA 01.01.2017 
Dati AlboPOP Item
RSS Creato
Pubblicazione GitHUB
