13/10/2017 09:31:21
Citta 
Ragusa
Recupero dati della Città
Dati recuperati correttamente
Download pagina
Creazione Feed
Inserimento dati AlboPOP
CONCESSIONE DILIZIA N.268/2017 - DITTA LA COGNATA ANDREA 
Dati AlboPOP Item
AFFIDAMENTO ALLA DITTA ITA PROGET PER ESECUZIONE DI SERVIZI DI MANUTENZIONE URGENTI ED IMPROROGABILI PRESSO LA PISCINA COMUNALE . CIG. Z7220119BB 
Dati AlboPOP Item
SERVIZI VARI PER I CENTRI STORICI: ORGANIZZAZIONE DELLA MANIFESTAZIONE III EDIZIONE “FESTIWALL”. CIG. Z271FD7E81 
Dati AlboPOP Item
FORNITURA E POSA DI ARREDI NECESSARI AL SECONDO PIANO DI PALAZZO DI CITTA' IMPORTO COMPLESSIVO € 1.360,00 IVA INCLUSA C.U.U 4W7N8L CODICE CIG: ZD41FEA436 
Dati AlboPOP Item
LIQUIDAZIONE PREMI POLIZZE VERIFICATORI E PROGETTISTI PER LAVORI DI RIQUALIFICAZIONE E ARREDO VILLA MARGHERITA – CIG:6894387422 E PER I LAVORI DI RIQUALIFICAZIONE DI STRADE URBANE E PREVENZIONE RISCHI PER LA PUBBLICA INCOLUMITA' NEL CENTRO STORICO DI RAGUSA CIG: 690492083C 
Dati AlboPOP Item
RIMBORSO ALLA IPAB ISTITUTO TESTASECCA DI CALTANISSETTA ONERI SOSTENUTI PER IL COMANDO TEMPORANEO PRESSO COMUNE DI RAGUSA DELLA DOTT.SSA ALAIMO ANNA MARIA. PERIODO 01.08.2017 – 30.09.2017. 
Dati AlboPOP Item
INTERVENTI DI MANUTENZIONE STRAORDINARIA IMMOBILI COMUNALI NEL CENTRO STORICO. APPROVAZIONE PERIZIA DI VARIANTE E SUPPLETIVA. 
Dati AlboPOP Item
SOSTITUZIONE R.U.P. PER I SEGUENTI APPALTI: LAVORI DI AMPLIAMENTO DEL CAMPO SPORTIVO GADDIMELI A MARINA DI RAGUSA. REALIZZAZIONE DI UN SKATEPARK ALL’INTERNO DELLA PISTA DI PATTINAGGIO DI VIA N. COLAIANNI A RAGUSA. REALIZZAZIONE DI UNA TENSOSTRUTTURA PER LA COPERTURA DI DUE CAMPI DA BOCCE NELL’IMPIANTO SPORTIVO DI CONTRADA PETRULLI A RAGUSA. 
Dati AlboPOP Item
 RINNOVO ABBONAMENTO AL SERVIZIO TELEMACO (INFOCAMERE) PER L'ANNO 2018. 
Dati AlboPOP Item
EROGAZIONE COMPENSI PROFESSIONALI AVVOCATURA 1° E 2° QUADRIMESTRE 2017. ART. 12 E SEGUENTI DEL REGOLAMENTO DELL'AVVOCATURA COMUNALE APPROVATO CON DELIBERAZIONE DELLA G.M. N. 48 DEL 26.01.2016 
Dati AlboPOP Item
PROGRAMMA PIPPI 6 (PROGRAMMA DI INTERVENTI PER LA PREVENZIONE DI ISTITUZIONALIZZAZIONE)- ACCERTAMENTO IN ENTRATA 
Dati AlboPOP Item
DEL. C.C. N° 46/17 - INIZIATIVA CONSILIARE PRESENTATA AI SENSI DELL'ART. 36 DEL VIGENTE REGOLAMENTO DEL CONSIGLIO COMUNALE, IN DATA 15.09.2017, PROT. 92270, DAI CONSIGLIERI MIGLIORE E NICITA, RIGUARDANTE IL REGOLAMENTO COMUNALE PER LA VALORIZZAZIONE DELLE ESPRESSIONI ARTISTICHE DI STRADA. 
Dati AlboPOP Item
DEL.G.M. N° 420/17 - APPROVAZIONE MODIFICA ALLA TABELLA "A" DEL PROTOCOLLO D'INTESA TRA LA DIOCESI ED IL COMUNE DI RAGUSA PER LA FRUIZIONE TURISTICA DI BENI ECCLESIASTICI DELLA CITTA' DI RAGUSA, RELATIVAMENTE AL PERIODO OTTOBRE - DICEMBRE 2017. RIF. DELIB. N. 169 DEL 3.04.2017. 
Dati AlboPOP Item
DET. SIND. N° 51/17 - AUTORIZZAZIONE ALLA DIPENDENTE APARO FRANCESCA ALL'ESPLETAMENTO DI CORSI DI SOSTEGNO E FORMAZIONE PER ADULTI. 
Dati AlboPOP Item
TRASPORTO PUBBLICO GRATUITO PER I CIMITERI DI RAGUSA SUPERIORE, RAGUSA IBLA E DI MARINA DI RAGUSA IN OCCASIONE DELLA COMMEMORAZIONE DEI DEFUNTI NEI GIORNI UNO E DUE NOVEMBRE 2017. AFFIDAMENTO ALLA DITTA LA TERRA S.R.L. DI RAGUSA. CIG: ZD32031062. 
Dati AlboPOP Item
SERVIZI RESIDENZIALI PER MINORI STRANIERI NON ACCOMPAGNATI (MSNA) 4° TRIMESTRE 2016 - RESTITUZIONE IMPORTO DI €. 90,00 AL MINISTERO DELL'INTERNO 
Dati AlboPOP Item
DETERMINA A CONTRARRE PER L’AVVIO DELLA PROCEDURA NEGOZIATA MEDIANTE RDO SUL MEPA PER L’ACQUISTO DI CAPI DI VESTIARIO INVERNALE ED ACCESSORI PER LA POLIZIA MUNICIPALE – IMPORTO DI SPESA DI € 40.000,00 IVA COMPRESA – CIG: Z862043A48 
Dati AlboPOP Item
AFFIDAMENTO ALLA DITTA HALLEY CONSULTING SERVIZIO PRODUZIONE INFORMATICO ACCERTAMENTI TOSAP 2012-2013-2014-2015 CIG Z12202AD4D 
Dati AlboPOP Item
LIQUIDAZIONE DELLA SOMMA DI € 36.027,00 PER RIMBORSO DI SOMME VERSATE E NON DOVUTE DAI CONTRIBUENTI PER ICI-IMU-TASI 
Dati AlboPOP Item
CONCESSIONE EDILIZIA N.294/2017 - SCARSO VALERIA 
Dati AlboPOP Item
PUBBLICAZIONE ATTO DI MATRIMONIO BIAZZO SALVATORE, MONCADA KATIA 
Dati AlboPOP Item
DEL. G.M. N° 425/17 - "MIGLIORAMENTO SISMICO DELL'EDIFICIO COMUNALE DI VIA M. SPADOLA ADIBITO A SEDE DELLA PROTEZIONE CIVILE E DELLA POLIZIA COMUNALE" - ANTICIPAZIONE CON FONDI DEL BILANCIO COMUNALE, NELLE MORE DELL'ACCREDITAMENTO DEL FINANZIAMENTO DA PARTE DEL DIPARTIMENTO REGIONALE DELLA PROTEZIONE CIVILE. 
Dati AlboPOP Item
DEL. G.M. N° 423/17 - APPROVAZIONE PROTOCOLLO D'INTESA CON CIRCOLO DIDATTICO "PALAZZELLO" PER REALIZZAZIONE DEL PROGETTO "BIBLIOTECHE SCOLASTICHE INNOVATIVE". 
Dati AlboPOP Item
DEL. G.M. N° 422/17 - RECLAMO AL TRIBUNALE DI RAGUSA, EX ART. 699 TERDECIES C.P.C., DELLA COOP. SOCIALE GIROTONDO A R.L. AVVERSO ORDINANZA GIUDICE DEL LAVORO EMESSA NEL PROCEDIMENTO N. 2104/17 PROMOSSO DALLA DOTT.SSA GIANNI' SILVANA. AUTORIZZAZIONE A STARE IN GIUDIZIO. 
Dati AlboPOP Item
DEL. G.M. N° 421/17 - RICORSO EX ART. 28 L.300/1970 AVANTI TRIBUNALE DI RAGUSA SEZ. LAVORO AVVERSO COMPORTAMENTO ANTISINDACALE ADOTTATO CON DELIBERAZIONI DI G.M. NN. 608 E 609 ANNO 2016 DALCOMUNE DI RAGUSA. DICCAP - DIPARTIMENTO AUTONOMIE LOCALI E POLIZIE LOCALI DI RAGUSA CONTRO COMUNE DI RAGUSA. AUTORIZZAZIONE A STARE IN GIUDIZIO. 
Dati AlboPOP Item
RSS Creato
Pubblicazione GitHUB
